*SPEF "IEEE 1481-1998"
*DESIGN "fir_16tap"
*DATE "Fri Jun  4 23:36:56 2021"
*VENDOR "Cadence Design Systems, Inc."
*PROGRAM "Encounter"
*VERSION "14.26-s039_1"
*DESIGN_FLOW "COUPLING C" "PIN_CAP NONE" "NAME_SCOPE LOCAL"
*DIVIDER /
*DELIMITER :
*BUS_DELIMITER []
*T_UNIT 1 NS
*C_UNIT 1 PF
*R_UNIT 1 OHM
*L_UNIT 1 HENRY

// MMMC spef file for corner 'rc_worst'

*NAME_MAP

*1 clk__L3_N25
*2 clk__L3_N24
*3 clk__L3_N23
*4 clk__L3_N22
*5 clk__L3_N21
*6 clk__L3_N20
*7 clk__L3_N19
*8 clk__L3_N18
*9 clk__L3_N17
*10 clk__L3_N16
*11 clk__L3_N15
*12 clk__L3_N14
*13 clk__L3_N13
*14 clk__L3_N12
*15 clk__L3_N11
*16 clk__L3_N10
*17 clk__L3_N9
*18 clk__L3_N8
*19 clk__L3_N7
*20 clk__L3_N6
*21 clk__L3_N5
*22 clk__L3_N4
*23 clk__L3_N3
*24 clk__L3_N2
*25 clk__L3_N1
*26 clk__L3_N0
*27 clk__L2_N3
*28 clk__L2_N2
*29 clk__L2_N1
*30 clk__L2_N0
*31 clk__L1_N0
*32 x[15]
*33 x[14]
*34 x[13]
*35 x[12]
*36 x[11]
*37 x[10]
*38 x[9]
*39 x[8]
*40 x[7]
*41 x[6]
*42 x[5]
*43 x[4]
*44 x[3]
*45 x[2]
*46 x[1]
*47 x[0]
*48 y[26]
*49 y[25]
*50 y[24]
*51 y[23]
*52 y[22]
*53 y[21]
*54 y[20]
*55 y[19]
*56 y[18]
*57 y[17]
*58 y[16]
*59 y[15]
*60 y[14]
*61 y[13]
*62 y[12]
*63 y[11]
*64 y[10]
*65 y[9]
*66 y[8]
*67 y[7]
*68 y[6]
*69 y[5]
*70 y[4]
*71 y[3]
*72 y[2]
*73 y[1]
*74 y[0]
*75 clk
*76 reset
*77 m43_9_
*78 m43_8_
*79 m43_7_
*80 m43_6_
*81 m43_5_
*82 m43_4_
*83 m43_3_
*84 m43_2_
*85 m43_20_
*86 m43_1_
*87 m43_19_
*88 m43_18_
*89 m43_17_
*90 m43_16_
*91 m43_15_
*92 m43_14_
*93 m43_13_
*94 m43_12_
*95 m43_11_
*96 m43_10_
*97 m43_0_
*98 m42_9_
*99 m42_8_
*100 m42_7_
*101 m42_6_
*102 m42_5_
*103 m42_4_
*104 m42_3_
*105 m42_2_
*106 m42_1_
*107 m42_19_
*108 m42_18_
*109 m42_17_
*110 m42_16_
*111 m42_15_
*112 m42_14_
*113 m42_13_
*114 m42_12_
*115 m42_11_
*116 m42_10_
*117 m40_9_
*118 m40_8_
*119 m40_7_
*120 m40_6_
*121 m40_5_
*122 m40_4_
*123 m40_3_
*124 m40_2_
*125 m40_19_
*126 m40_18_
*127 m40_17_
*128 m40_16_
*129 m40_15_
*130 m40_14_
*131 m40_13_
*132 m40_12_
*133 m40_11_
*134 m40_10_
*135 m39_9_
*136 m39_8_
*137 m39_7_
*138 m39_6_
*139 m39_5_
*140 m39_4_
*141 m39_3_
*142 m39_2_
*143 m39_1_
*144 m39_19_
*145 m39_18_
*146 m39_17_
*147 m39_16_
*148 m39_15_
*149 m39_14_
*150 m39_13_
*151 m39_12_
*152 m39_11_
*153 m39_10_
*154 m38_9_
*155 m38_8_
*156 m38_7_
*157 m38_6_
*158 m38_5_
*159 m38_4_
*160 m38_3_
*161 m38_2_
*162 m38_19_
*163 m38_18_
*164 m38_17_
*165 m38_16_
*166 m38_15_
*167 m38_14_
*168 m38_13_
*169 m38_12_
*170 m38_11_
*171 m38_10_
*172 m37_9_
*173 m37_8_
*174 m37_7_
*175 m37_6_
*176 m37_5_
*177 m37_4_
*178 m37_3_
*179 m37_2_
*180 m37_20_
*181 m37_1_
*182 m37_19_
*183 m37_18_
*184 m37_17_
*185 m37_16_
*186 m37_15_
*187 m37_14_
*188 m37_13_
*189 m37_12_
*190 m37_11_
*191 m37_10_
*192 m37_0_
*193 m36_9_
*194 m36_8_
*195 m36_7_
*196 m36_6_
*197 m36_5_
*198 m36_4_
*199 m36_3_
*200 m36_19_
*201 m36_18_
*202 m36_17_
*203 m36_16_
*204 m36_15_
*205 m36_14_
*206 m36_13_
*207 m36_12_
*208 m36_11_
*209 m36_10_
*210 m35_9_
*211 m35_8_
*212 m35_7_
*213 m35_6_
*214 m35_5_
*215 m35_4_
*216 m35_3_
*217 m35_2_
*218 m35_22_
*219 m35_21_
*220 m35_20_
*221 m35_1_
*222 m35_19_
*223 m35_18_
*224 m35_17_
*225 m35_16_
*226 m35_15_
*227 m35_14_
*228 m35_13_
*229 m35_12_
*230 m35_11_
*231 m35_10_
*232 m34_9_
*233 m34_8_
*234 m34_7_
*235 m34_6_
*236 m34_5_
*237 m34_4_
*238 m34_3_
*239 m34_2_
*240 m34_1_
*241 m34_19_
*242 m34_18_
*243 m34_17_
*244 m34_16_
*245 m34_15_
*246 m34_14_
*247 m34_13_
*248 m34_12_
*249 m34_11_
*250 m34_10_
*251 m34_0_
*252 m32_9_
*253 m32_8_
*254 m32_7_
*255 m32_6_
*256 m32_5_
*257 m32_4_
*258 m32_3_
*259 m32_2_
*260 m32_1_
*261 m32_19_
*262 m32_18_
*263 m32_17_
*264 m32_16_
*265 m32_15_
*266 m32_14_
*267 m32_13_
*268 m32_12_
*269 m32_11_
*270 m32_10_
*271 m31_9_
*272 m31_8_
*273 m31_7_
*274 m31_6_
*275 m31_5_
*276 m31_4_
*277 m31_3_
*278 m31_2_
*279 m31_1_
*280 m31_18_
*281 m31_17_
*282 m31_16_
*283 m31_15_
*284 m31_14_
*285 m31_13_
*286 m31_12_
*287 m31_11_
*288 m31_10_
*289 m30_9_
*290 m30_8_
*291 m30_7_
*292 m30_6_
*293 m30_5_
*294 m30_4_
*295 m30_3_
*296 m30_2_
*297 m30_19_
*298 m30_18_
*299 m30_17_
*300 m30_16_
*301 m30_15_
*302 m30_14_
*303 m30_13_
*304 m30_12_
*305 m30_11_
*306 m30_10_
*307 m29_9_
*308 m29_8_
*309 m29_7_
*310 m29_6_
*311 m29_5_
*312 m29_4_
*313 m29_3_
*314 m29_20_
*315 m29_19_
*316 m29_18_
*317 m29_17_
*318 m29_16_
*319 m29_15_
*320 m29_14_
*321 m29_13_
*322 m29_12_
*323 m29_11_
*324 m29_10_
*325 m27_9_
*326 m27_8_
*327 m27_7_
*328 m27_6_
*329 m27_5_
*330 m27_4_
*331 m27_3_
*332 m27_2_
*333 m27_1_
*334 m27_19_
*335 m27_18_
*336 m27_17_
*337 m27_16_
*338 m27_15_
*339 m27_14_
*340 m27_13_
*341 m27_12_
*342 m27_11_
*343 m27_10_
*344 m27_0_
*345 m26_9_
*346 m26_8_
*347 m26_7_
*348 m26_6_
*349 m26_5_
*350 m26_4_
*351 m26_3_
*352 m26_2_
*353 m26_1_
*354 m26_18_
*355 m26_17_
*356 m26_16_
*357 m26_15_
*358 m26_14_
*359 m26_13_
*360 m26_12_
*361 m26_11_
*362 m26_10_
*363 m26_0_
*364 m25_9_
*365 m25_8_
*366 m25_7_
*367 m25_6_
*368 m25_5_
*369 m25_4_
*370 m25_3_
*371 m25_2_
*372 m25_20_
*373 m25_1_
*374 m25_19_
*375 m25_18_
*376 m25_17_
*377 m25_16_
*378 m25_15_
*379 m25_14_
*380 m25_13_
*381 m25_12_
*382 m25_11_
*383 m25_10_
*384 m24_9_
*385 m24_8_
*386 m24_7_
*387 m24_6_
*388 m24_5_
*389 m24_4_
*390 m24_3_
*391 m24_2_
*392 m24_1_
*393 m24_18_
*394 m24_17_
*395 m24_16_
*396 m24_15_
*397 m24_14_
*398 m24_13_
*399 m24_12_
*400 m24_11_
*401 m24_10_
*402 m22_9_
*403 m22_8_
*404 m22_7_
*405 m22_6_
*406 m22_5_
*407 m22_4_
*408 m22_3_
*409 m22_2_
*410 m22_1_
*411 m22_18_
*412 m22_17_
*413 m22_16_
*414 m22_15_
*415 m22_14_
*416 m22_13_
*417 m22_12_
*418 m22_11_
*419 m22_10_
*420 m22_0_
*421 m18_9_
*422 m18_8_
*423 m18_7_
*424 m18_6_
*425 m18_5_
*426 m18_4_
*427 m18_3_
*428 m18_2_
*429 m18_1_
*430 m18_17_
*431 m18_16_
*432 m18_15_
*433 m18_14_
*434 m18_13_
*435 m18_12_
*436 m18_11_
*437 m18_10_
*438 add_6_root_add_0_root_add_94_carry_4_
*439 add_6_root_add_0_root_add_94_carry_5_
*440 add_6_root_add_0_root_add_94_carry_6_
*441 add_6_root_add_0_root_add_94_carry_7_
*442 add_6_root_add_0_root_add_94_carry_8_
*443 add_6_root_add_0_root_add_94_carry_9_
*444 add_6_root_add_0_root_add_94_carry_10_
*445 add_6_root_add_0_root_add_94_carry_11_
*446 add_6_root_add_0_root_add_94_carry_12_
*447 add_6_root_add_0_root_add_94_carry_13_
*448 add_6_root_add_0_root_add_94_carry_14_
*449 add_6_root_add_0_root_add_94_carry_15_
*450 add_6_root_add_0_root_add_94_carry_16_
*451 add_6_root_add_0_root_add_94_carry_17_
*452 add_6_root_add_0_root_add_94_carry_18_
*453 add_6_root_add_0_root_add_94_carry_19_
*454 add_6_root_add_0_root_add_94_carry_20_
*455 add_6_root_add_0_root_add_94_carry_21_
*456 add_6_root_add_0_root_add_94_SUM_3_
*457 add_6_root_add_0_root_add_94_SUM_4_
*458 add_6_root_add_0_root_add_94_SUM_5_
*459 add_6_root_add_0_root_add_94_SUM_6_
*460 add_6_root_add_0_root_add_94_SUM_7_
*461 add_6_root_add_0_root_add_94_SUM_8_
*462 add_6_root_add_0_root_add_94_SUM_9_
*463 add_6_root_add_0_root_add_94_SUM_10_
*464 add_6_root_add_0_root_add_94_SUM_11_
*465 add_6_root_add_0_root_add_94_SUM_12_
*466 add_6_root_add_0_root_add_94_SUM_13_
*467 add_6_root_add_0_root_add_94_SUM_14_
*468 add_6_root_add_0_root_add_94_SUM_15_
*469 add_6_root_add_0_root_add_94_SUM_16_
*470 add_6_root_add_0_root_add_94_SUM_17_
*471 add_6_root_add_0_root_add_94_SUM_18_
*472 add_6_root_add_0_root_add_94_SUM_19_
*473 add_6_root_add_0_root_add_94_SUM_20_
*474 n15
*475 n16
*476 n17
*477 n18
*478 n19
*479 n20
*480 n21
*481 n22
*482 n23
*483 n24
*484 n25
*485 n26
*486 n27
*487 n28
*488 n29
*489 n30
*490 n31
*491 n32
*492 n33
*493 n34
*494 n35
*495 n36
*496 n37
*497 n38
*498 n39
*499 n40
*500 n41
*501 n42
*502 n43
*503 n44
*504 n45
*505 n46
*506 n47
*507 n48
*508 n49
*509 n50
*510 n51
*511 n52
*512 n53
*513 n54
*514 n55
*515 n56
*516 n57
*517 n58
*518 n59
*519 n60
*520 n61
*521 n62
*522 n63
*523 n64
*524 n65
*525 n66
*526 n67
*527 n68
*528 n69
*529 n70
*530 n71
*531 n72
*532 n73
*533 n74
*534 n75
*535 n76
*536 n77
*537 n78
*538 n79
*539 n80
*540 n81
*541 n82
*542 n83
*543 n84
*544 n85
*545 n86
*546 n87
*547 n88
*548 n89
*549 n90
*550 n91
*551 n92
*552 n93
*553 n94
*554 n95
*555 n96
*556 n97
*557 n98
*558 n99
*559 n100
*560 n101
*561 n102
*562 n103
*563 n104
*564 n105
*565 n106
*566 n107
*567 n108
*568 n109
*569 n110
*570 n111
*571 n112
*572 n113
*573 n114
*574 n115
*575 n116
*576 n117
*577 n118
*578 n119
*579 n120
*580 n121
*581 n122
*582 n123
*583 n124
*584 n125
*585 n126
*586 n127
*587 n128
*588 n129
*589 n130
*590 n131
*591 n132
*592 m0[15]
*593 m0[14]
*594 m0[13]
*595 m0[12]
*596 m0[11]
*597 m0[10]
*598 m0[9]
*599 m0[8]
*600 m0[7]
*601 m0[6]
*602 m0[5]
*603 m0[4]
*604 m0[3]
*605 m0[2]
*606 m0[1]
*607 m1[15]
*608 m1[14]
*609 m1[13]
*610 m1[12]
*611 m1[11]
*612 m1[10]
*613 m1[9]
*614 m1[8]
*615 m1[7]
*616 m1[6]
*617 m1[5]
*618 m1[4]
*619 m1[3]
*620 m1[2]
*621 m1[1]
*622 m1[0]
*623 m2[15]
*624 m2[14]
*625 m2[13]
*626 m2[12]
*627 m2[11]
*628 m2[10]
*629 m2[9]
*630 m2[8]
*631 m2[7]
*632 m2[6]
*633 m2[5]
*634 m2[4]
*635 m2[3]
*636 m2[2]
*637 m2[1]
*638 m2[0]
*639 m3[15]
*640 m3[14]
*641 m3[13]
*642 m3[12]
*643 m3[11]
*644 m3[10]
*645 m3[9]
*646 m3[8]
*647 m3[7]
*648 m3[6]
*649 m3[5]
*650 m3[4]
*651 m3[3]
*652 m3[2]
*653 m4[15]
*654 m4[14]
*655 m4[13]
*656 m4[12]
*657 m4[11]
*658 m4[10]
*659 m4[9]
*660 m4[8]
*661 m4[7]
*662 m4[6]
*663 m4[5]
*664 m4[4]
*665 m4[3]
*666 m4[2]
*667 m4[1]
*668 m5[15]
*669 m5[14]
*670 m5[13]
*671 m5[12]
*672 m5[11]
*673 m5[10]
*674 m5[9]
*675 m5[8]
*676 m5[7]
*677 m5[6]
*678 m5[5]
*679 m5[4]
*680 m5[3]
*681 m5[2]
*682 m5[1]
*683 m6[15]
*684 m6[14]
*685 m6[13]
*686 m6[12]
*687 m6[11]
*688 m6[10]
*689 m6[9]
*690 m6[8]
*691 m6[7]
*692 m6[6]
*693 m6[5]
*694 m6[4]
*695 m6[3]
*696 m6[2]
*697 m6[1]
*698 m7[15]
*699 m7[14]
*700 m7[13]
*701 m7[12]
*702 m7[11]
*703 m7[10]
*704 m7[9]
*705 m7[8]
*706 m7[7]
*707 m7[6]
*708 m7[5]
*709 m7[4]
*710 m7[3]
*711 m8[15]
*712 m8[14]
*713 m8[13]
*714 m8[12]
*715 m8[11]
*716 m8[10]
*717 m8[9]
*718 m8[8]
*719 m8[7]
*720 m8[6]
*721 m8[5]
*722 m8[4]
*723 m8[3]
*724 m8[2]
*725 m9[15]
*726 m9[14]
*727 m9[13]
*728 m9[12]
*729 m9[11]
*730 m9[10]
*731 m9[9]
*732 m9[8]
*733 m9[7]
*734 m9[6]
*735 m9[5]
*736 m9[4]
*737 m9[3]
*738 m9[2]
*739 m9[1]
*740 m10[15]
*741 m10[14]
*742 m10[13]
*743 m10[12]
*744 m10[11]
*745 m10[10]
*746 m10[9]
*747 m10[8]
*748 m10[7]
*749 m10[6]
*750 m10[5]
*751 m10[4]
*752 m10[3]
*753 m10[2]
*754 m10[1]
*755 m10[0]
*756 m11[15]
*757 m11[14]
*758 m11[13]
*759 m11[12]
*760 m11[11]
*761 m11[10]
*762 m11[9]
*763 m11[8]
*764 m11[7]
*765 m11[6]
*766 m11[5]
*767 m11[4]
*768 m11[3]
*769 m11[2]
*770 m11[1]
*771 m11[0]
*772 m12[15]
*773 m12[14]
*774 m12[13]
*775 m12[12]
*776 m12[11]
*777 m12[10]
*778 m12[9]
*779 m12[8]
*780 m12[7]
*781 m12[6]
*782 m12[5]
*783 m12[4]
*784 m12[3]
*785 m12[2]
*786 m12[1]
*787 m12[0]
*788 m13[15]
*789 m13[14]
*790 m13[13]
*791 m13[12]
*792 m13[11]
*793 m13[10]
*794 m13[9]
*795 m13[8]
*796 m13[7]
*797 m13[6]
*798 m13[5]
*799 m13[4]
*800 m13[3]
*801 m13[2]
*802 m13[1]
*803 m13[0]
*804 m14[15]
*805 m14[14]
*806 m14[13]
*807 m14[12]
*808 m14[11]
*809 m14[10]
*810 m14[9]
*811 m14[8]
*812 m14[7]
*813 m14[6]
*814 m14[5]
*815 m14[4]
*816 m14[3]
*817 m14[2]
*818 m14[1]
*819 m14[0]
*820 add_8_root_add_0_root_add_94_carry[19]
*821 add_8_root_add_0_root_add_94_carry[18]
*822 add_8_root_add_0_root_add_94_carry[17]
*823 add_8_root_add_0_root_add_94_carry[16]
*824 add_8_root_add_0_root_add_94_carry[15]
*825 add_8_root_add_0_root_add_94_carry[14]
*826 add_8_root_add_0_root_add_94_carry[13]
*827 add_8_root_add_0_root_add_94_carry[12]
*828 add_8_root_add_0_root_add_94_carry[11]
*829 add_8_root_add_0_root_add_94_carry[10]
*830 add_8_root_add_0_root_add_94_carry[9]
*831 add_8_root_add_0_root_add_94_carry[8]
*832 add_8_root_add_0_root_add_94_carry[7]
*833 add_8_root_add_0_root_add_94_carry[6]
*834 add_8_root_add_0_root_add_94_carry[5]
*835 add_8_root_add_0_root_add_94_carry[4]
*836 add_8_root_add_0_root_add_94_carry[3]
*837 add_8_root_add_0_root_add_94_carry[2]
*838 add_8_root_add_0_root_add_94_carry[1]
*839 add_14_root_add_0_root_add_94_carry[17]
*840 add_14_root_add_0_root_add_94_carry[16]
*841 add_14_root_add_0_root_add_94_carry[15]
*842 add_14_root_add_0_root_add_94_carry[14]
*843 add_14_root_add_0_root_add_94_carry[13]
*844 add_14_root_add_0_root_add_94_carry[12]
*845 add_14_root_add_0_root_add_94_carry[11]
*846 add_14_root_add_0_root_add_94_carry[10]
*847 add_14_root_add_0_root_add_94_carry[9]
*848 add_14_root_add_0_root_add_94_carry[8]
*849 add_14_root_add_0_root_add_94_carry[7]
*850 add_14_root_add_0_root_add_94_carry[6]
*851 add_14_root_add_0_root_add_94_carry[5]
*852 add_14_root_add_0_root_add_94_carry[4]
*853 add_14_root_add_0_root_add_94_carry[3]
*854 add_13_root_add_0_root_add_94_carry[19]
*855 add_13_root_add_0_root_add_94_carry[18]
*856 add_13_root_add_0_root_add_94_carry[17]
*857 add_13_root_add_0_root_add_94_carry[16]
*858 add_13_root_add_0_root_add_94_carry[15]
*859 add_13_root_add_0_root_add_94_carry[14]
*860 add_13_root_add_0_root_add_94_carry[13]
*861 add_13_root_add_0_root_add_94_carry[12]
*862 add_13_root_add_0_root_add_94_carry[11]
*863 add_13_root_add_0_root_add_94_carry[10]
*864 add_13_root_add_0_root_add_94_carry[9]
*865 add_13_root_add_0_root_add_94_carry[8]
*866 add_13_root_add_0_root_add_94_carry[7]
*867 add_13_root_add_0_root_add_94_carry[6]
*868 add_13_root_add_0_root_add_94_carry[5]
*869 add_12_root_add_0_root_add_94_carry[18]
*870 add_12_root_add_0_root_add_94_carry[17]
*871 add_12_root_add_0_root_add_94_carry[16]
*872 add_12_root_add_0_root_add_94_carry[15]
*873 add_12_root_add_0_root_add_94_carry[14]
*874 add_12_root_add_0_root_add_94_carry[13]
*875 add_12_root_add_0_root_add_94_carry[12]
*876 add_12_root_add_0_root_add_94_carry[11]
*877 add_12_root_add_0_root_add_94_carry[10]
*878 add_12_root_add_0_root_add_94_carry[9]
*879 add_12_root_add_0_root_add_94_carry[8]
*880 add_12_root_add_0_root_add_94_carry[7]
*881 add_12_root_add_0_root_add_94_carry[6]
*882 add_12_root_add_0_root_add_94_carry[5]
*883 add_12_root_add_0_root_add_94_carry[4]
*884 add_12_root_add_0_root_add_94_carry[3]
*885 add_12_root_add_0_root_add_94_carry[2]
*886 add_9_root_add_0_root_add_94_carry[19]
*887 add_9_root_add_0_root_add_94_carry[18]
*888 add_9_root_add_0_root_add_94_carry[17]
*889 add_9_root_add_0_root_add_94_carry[16]
*890 add_9_root_add_0_root_add_94_carry[15]
*891 add_9_root_add_0_root_add_94_carry[14]
*892 add_9_root_add_0_root_add_94_carry[13]
*893 add_9_root_add_0_root_add_94_carry[12]
*894 add_9_root_add_0_root_add_94_carry[11]
*895 add_9_root_add_0_root_add_94_carry[10]
*896 add_9_root_add_0_root_add_94_carry[9]
*897 add_9_root_add_0_root_add_94_carry[8]
*898 add_9_root_add_0_root_add_94_carry[7]
*899 add_9_root_add_0_root_add_94_carry[6]
*900 add_9_root_add_0_root_add_94_carry[5]
*901 add_9_root_add_0_root_add_94_carry[4]
*902 add_9_root_add_0_root_add_94_carry[3]
*903 mult_73/n2
*904 mult_73/n3
*905 mult_73/n4
*906 mult_73/n5
*907 mult_73/n6
*908 mult_73/n7
*909 mult_73/n8
*910 mult_73/n9
*911 mult_73/n10
*912 mult_73/n11
*913 mult_73/n12
*914 mult_73/n13
*915 mult_73/n14
*916 mult_73/n15
*917 mult_73/n16
*918 mult_70/n2
*919 mult_70/n3
*920 mult_70/n4
*921 mult_70/n5
*922 mult_70/n6
*923 mult_70/n7
*924 mult_70/n8
*925 mult_70/n9
*926 mult_70/n10
*927 mult_70/n11
*928 mult_70/n12
*929 mult_70/n13
*930 mult_70/n14
*931 mult_70/n15
*932 mult_70/n16
*933 mult_64/n2
*934 mult_64/n3
*935 mult_64/n4
*936 mult_64/n5
*937 mult_64/n6
*938 mult_64/n7
*939 mult_64/n8
*940 mult_64/n9
*941 mult_64/n10
*942 mult_64/n11
*943 mult_64/n12
*944 mult_64/n13
*945 mult_64/n14
*946 mult_64/n15
*947 mult_64/n16
*948 mult_67/n2
*949 mult_67/n3
*950 mult_67/n4
*951 mult_67/n5
*952 mult_67/n6
*953 mult_67/n7
*954 mult_67/n8
*955 mult_67/n9
*956 mult_67/n10
*957 mult_67/n11
*958 mult_67/n12
*959 mult_67/n13
*960 mult_67/n14
*961 mult_67/n15
*962 mult_67/n16
*963 add_3_root_add_0_root_add_94/n1
*964 add_3_root_add_0_root_add_94/carry[20]
*965 add_3_root_add_0_root_add_94/carry[19]
*966 add_3_root_add_0_root_add_94/carry[18]
*967 add_3_root_add_0_root_add_94/carry[17]
*968 add_3_root_add_0_root_add_94/carry[16]
*969 add_3_root_add_0_root_add_94/carry[15]
*970 add_3_root_add_0_root_add_94/carry[14]
*971 add_3_root_add_0_root_add_94/carry[13]
*972 add_3_root_add_0_root_add_94/carry[12]
*973 add_3_root_add_0_root_add_94/carry[11]
*974 add_3_root_add_0_root_add_94/carry[10]
*975 add_3_root_add_0_root_add_94/carry[9]
*976 add_3_root_add_0_root_add_94/carry[8]
*977 add_3_root_add_0_root_add_94/carry[7]
*978 add_3_root_add_0_root_add_94/carry[6]
*979 add_3_root_add_0_root_add_94/carry[5]
*980 add_3_root_add_0_root_add_94/carry[4]
*981 add_3_root_add_0_root_add_94/carry[3]
*982 add_3_root_add_0_root_add_94/carry[2]
*983 mult_68/n3
*984 mult_68/n4
*985 mult_68/n5
*986 mult_68/n6
*987 mult_68/n7
*988 mult_68/n8
*989 mult_68/n9
*990 mult_68/n10
*991 mult_68/n11
*992 mult_68/n12
*993 mult_68/n13
*994 mult_68/n14
*995 mult_68/n15
*996 mult_68/n16
*997 mult_68/n17
*998 mult_68/n78
*999 mult_68/n79
*1000 mult_68/n80
*1001 mult_68/n81
*1002 mult_68/n82
*1003 mult_68/n83
*1004 mult_68/n84
*1005 mult_68/n85
*1006 mult_68/n86
*1007 mult_68/n87
*1008 mult_68/n88
*1009 mult_68/n89
*1010 mult_68/n90
*1011 mult_68/n91
*1012 mult_68/n92
*1013 mult_68/n93
*1014 mult_68/n94
*1015 mult_68/n95
*1016 mult_66/n2
*1017 mult_66/n3
*1018 mult_66/n4
*1019 mult_66/n5
*1020 mult_66/n6
*1021 mult_66/n7
*1022 mult_66/n8
*1023 mult_66/n9
*1024 mult_66/n10
*1025 mult_66/n11
*1026 mult_66/n12
*1027 mult_66/n13
*1028 mult_66/n14
*1029 mult_66/n15
*1030 mult_66/n16
*1031 add_11_root_add_0_root_add_94/n2
*1032 add_11_root_add_0_root_add_94/carry[18]
*1033 add_11_root_add_0_root_add_94/carry[17]
*1034 add_11_root_add_0_root_add_94/carry[16]
*1035 add_11_root_add_0_root_add_94/carry[15]
*1036 add_11_root_add_0_root_add_94/carry[14]
*1037 add_11_root_add_0_root_add_94/carry[13]
*1038 add_11_root_add_0_root_add_94/carry[12]
*1039 add_11_root_add_0_root_add_94/carry[11]
*1040 add_11_root_add_0_root_add_94/carry[10]
*1041 add_11_root_add_0_root_add_94/carry[9]
*1042 add_11_root_add_0_root_add_94/carry[8]
*1043 add_11_root_add_0_root_add_94/carry[7]
*1044 add_11_root_add_0_root_add_94/carry[6]
*1045 add_11_root_add_0_root_add_94/carry[5]
*1046 add_11_root_add_0_root_add_94/carry[4]
*1047 add_11_root_add_0_root_add_94/carry[3]
*1048 add_11_root_add_0_root_add_94/carry[2]
*1049 mult_74/n2
*1050 mult_74/n3
*1051 mult_74/n4
*1052 mult_74/n5
*1053 mult_74/n6
*1054 mult_74/n7
*1055 mult_74/n8
*1056 mult_74/n9
*1057 mult_74/n10
*1058 mult_74/n11
*1059 mult_74/n12
*1060 mult_74/n13
*1061 mult_74/n14
*1062 mult_74/n15
*1063 mult_74/n16
*1064 mult_74/n17
*1065 mult_74/n18
*1066 mult_74/n19
*1067 mult_74/n20
*1068 mult_74/n21
*1069 mult_74/n22
*1070 mult_74/n23
*1071 mult_74/n24
*1072 mult_74/n25
*1073 mult_74/n26
*1074 mult_74/n27
*1075 mult_74/n28
*1076 mult_74/n29
*1077 mult_74/n30
*1078 mult_74/n31
*1079 mult_74/n32
*1080 mult_74/n33
*1081 mult_74/n34
*1082 mult_74/n35
*1083 mult_74/n36
*1084 mult_74/n37
*1085 mult_74/n38
*1086 mult_74/n39
*1087 mult_74/n40
*1088 mult_74/n41
*1089 mult_74/n42
*1090 mult_74/n43
*1091 mult_74/n44
*1092 mult_74/n45
*1093 mult_74/n46
*1094 mult_74/n47
*1095 mult_71/n2
*1096 mult_71/n3
*1097 mult_71/n4
*1098 mult_71/n5
*1099 mult_71/n6
*1100 mult_71/n7
*1101 mult_71/n8
*1102 mult_71/n9
*1103 mult_71/n10
*1104 mult_71/n11
*1105 mult_71/n12
*1106 mult_71/n13
*1107 mult_71/n14
*1108 mult_71/n15
*1109 mult_71/n16
*1110 mult_75/n3
*1111 mult_75/n4
*1112 mult_75/n5
*1113 mult_75/n6
*1114 mult_75/n7
*1115 mult_75/n8
*1116 mult_75/n9
*1117 mult_75/n10
*1118 mult_75/n11
*1119 mult_75/n12
*1120 mult_75/n13
*1121 mult_75/n14
*1122 mult_75/n15
*1123 mult_75/n16
*1124 mult_75/n17
*1125 mult_75/n80
*1126 mult_75/n81
*1127 mult_75/n82
*1128 mult_75/n83
*1129 mult_75/n84
*1130 mult_75/n85
*1131 mult_75/n86
*1132 mult_75/n87
*1133 mult_75/n88
*1134 mult_75/n89
*1135 mult_75/n90
*1136 mult_75/n91
*1137 mult_75/n92
*1138 mult_75/n93
*1139 mult_75/n94
*1140 mult_75/n95
*1141 mult_75/n96
*1142 mult_75/n97
*1143 add_10_root_add_0_root_add_94/n2
*1144 add_10_root_add_0_root_add_94/carry[19]
*1145 add_10_root_add_0_root_add_94/carry[18]
*1146 add_10_root_add_0_root_add_94/carry[17]
*1147 add_10_root_add_0_root_add_94/carry[16]
*1148 add_10_root_add_0_root_add_94/carry[15]
*1149 add_10_root_add_0_root_add_94/carry[14]
*1150 add_10_root_add_0_root_add_94/carry[13]
*1151 add_10_root_add_0_root_add_94/carry[12]
*1152 add_10_root_add_0_root_add_94/carry[11]
*1153 add_10_root_add_0_root_add_94/carry[10]
*1154 add_10_root_add_0_root_add_94/carry[9]
*1155 add_10_root_add_0_root_add_94/carry[8]
*1156 add_10_root_add_0_root_add_94/carry[7]
*1157 add_10_root_add_0_root_add_94/carry[6]
*1158 add_10_root_add_0_root_add_94/carry[5]
*1159 add_10_root_add_0_root_add_94/carry[4]
*1160 add_10_root_add_0_root_add_94/carry[3]
*1161 add_7_root_add_0_root_add_94/n1
*1162 add_7_root_add_0_root_add_94/carry[20]
*1163 add_7_root_add_0_root_add_94/carry[19]
*1164 add_7_root_add_0_root_add_94/carry[18]
*1165 add_7_root_add_0_root_add_94/carry[17]
*1166 add_7_root_add_0_root_add_94/carry[16]
*1167 add_7_root_add_0_root_add_94/carry[15]
*1168 add_7_root_add_0_root_add_94/carry[14]
*1169 add_7_root_add_0_root_add_94/carry[13]
*1170 add_7_root_add_0_root_add_94/carry[12]
*1171 add_7_root_add_0_root_add_94/carry[11]
*1172 add_7_root_add_0_root_add_94/carry[10]
*1173 add_7_root_add_0_root_add_94/carry[9]
*1174 add_7_root_add_0_root_add_94/carry[8]
*1175 add_7_root_add_0_root_add_94/carry[7]
*1176 add_7_root_add_0_root_add_94/carry[6]
*1177 add_7_root_add_0_root_add_94/carry[5]
*1178 add_7_root_add_0_root_add_94/carry[4]
*1179 add_7_root_add_0_root_add_94/carry[3]
*1180 add_5_root_add_0_root_add_94/n2
*1181 add_5_root_add_0_root_add_94/n3
*1182 add_5_root_add_0_root_add_94/n8
*1183 add_5_root_add_0_root_add_94/carry[19]
*1184 add_5_root_add_0_root_add_94/carry[18]
*1185 add_5_root_add_0_root_add_94/carry[17]
*1186 add_5_root_add_0_root_add_94/carry[16]
*1187 add_5_root_add_0_root_add_94/carry[15]
*1188 add_5_root_add_0_root_add_94/carry[14]
*1189 add_5_root_add_0_root_add_94/carry[13]
*1190 add_5_root_add_0_root_add_94/carry[12]
*1191 add_5_root_add_0_root_add_94/carry[11]
*1192 add_5_root_add_0_root_add_94/carry[10]
*1193 add_5_root_add_0_root_add_94/carry[9]
*1194 add_5_root_add_0_root_add_94/carry[8]
*1195 add_5_root_add_0_root_add_94/carry[7]
*1196 add_5_root_add_0_root_add_94/carry[6]
*1197 add_5_root_add_0_root_add_94/carry[5]
*1198 add_5_root_add_0_root_add_94/carry[4]
*1199 add_5_root_add_0_root_add_94/carry[3]
*1200 add_4_root_add_0_root_add_94/n3
*1201 add_4_root_add_0_root_add_94/carry[22]
*1202 add_4_root_add_0_root_add_94/carry[21]
*1203 add_4_root_add_0_root_add_94/carry[20]
*1204 add_4_root_add_0_root_add_94/carry[19]
*1205 add_4_root_add_0_root_add_94/carry[18]
*1206 add_4_root_add_0_root_add_94/carry[17]
*1207 add_4_root_add_0_root_add_94/carry[16]
*1208 add_4_root_add_0_root_add_94/carry[15]
*1209 add_4_root_add_0_root_add_94/carry[14]
*1210 add_4_root_add_0_root_add_94/carry[13]
*1211 add_4_root_add_0_root_add_94/carry[12]
*1212 add_4_root_add_0_root_add_94/carry[11]
*1213 add_4_root_add_0_root_add_94/carry[10]
*1214 add_4_root_add_0_root_add_94/carry[9]
*1215 add_4_root_add_0_root_add_94/carry[8]
*1216 add_4_root_add_0_root_add_94/carry[7]
*1217 add_4_root_add_0_root_add_94/carry[6]
*1218 add_4_root_add_0_root_add_94/carry[5]
*1219 add_4_root_add_0_root_add_94/carry[4]
*1220 add_4_root_add_0_root_add_94/carry[3]
*1221 add_4_root_add_0_root_add_94/carry[2]
*1222 add_2_root_add_0_root_add_94/n1
*1223 add_2_root_add_0_root_add_94/n6
*1224 add_2_root_add_0_root_add_94/carry[22]
*1225 add_2_root_add_0_root_add_94/carry[21]
*1226 add_2_root_add_0_root_add_94/carry[20]
*1227 add_2_root_add_0_root_add_94/carry[19]
*1228 add_2_root_add_0_root_add_94/carry[18]
*1229 add_2_root_add_0_root_add_94/carry[17]
*1230 add_2_root_add_0_root_add_94/carry[16]
*1231 add_2_root_add_0_root_add_94/carry[15]
*1232 add_2_root_add_0_root_add_94/carry[14]
*1233 add_2_root_add_0_root_add_94/carry[13]
*1234 add_2_root_add_0_root_add_94/carry[12]
*1235 add_2_root_add_0_root_add_94/carry[11]
*1236 add_2_root_add_0_root_add_94/carry[10]
*1237 add_2_root_add_0_root_add_94/carry[9]
*1238 add_2_root_add_0_root_add_94/carry[8]
*1239 add_2_root_add_0_root_add_94/carry[7]
*1240 add_2_root_add_0_root_add_94/carry[6]
*1241 add_2_root_add_0_root_add_94/carry[5]
*1242 add_2_root_add_0_root_add_94/carry[4]
*1243 add_2_root_add_0_root_add_94/carry[3]
*1244 add_2_root_add_0_root_add_94/carry[2]
*1245 mult_72/n2
*1246 mult_72/n3
*1247 mult_72/n4
*1248 mult_72/n5
*1249 mult_72/n6
*1250 mult_72/n7
*1251 mult_72/n8
*1252 mult_72/n9
*1253 mult_72/n10
*1254 mult_72/n11
*1255 mult_72/n12
*1256 mult_72/n13
*1257 mult_72/n14
*1258 mult_72/n15
*1259 mult_72/n16
*1260 mult_72/n17
*1261 mult_72/n18
*1262 mult_72/n19
*1263 mult_72/n20
*1264 mult_72/n21
*1265 mult_72/n22
*1266 mult_72/n23
*1267 mult_72/n24
*1268 mult_72/n25
*1269 mult_72/n26
*1270 mult_72/n27
*1271 mult_72/n28
*1272 mult_72/n29
*1273 mult_72/n30
*1274 mult_72/n31
*1275 mult_72/n32
*1276 mult_72/n33
*1277 mult_72/n34
*1278 mult_72/n35
*1279 mult_72/n36
*1280 mult_72/n37
*1281 mult_72/n38
*1282 mult_72/n39
*1283 mult_72/n40
*1284 mult_72/n41
*1285 mult_72/n42
*1286 mult_72/n43
*1287 mult_72/n44
*1288 mult_72/n45
*1289 mult_72/n46
*1290 mult_76/n4
*1291 mult_76/n5
*1292 mult_76/n6
*1293 mult_76/n7
*1294 mult_76/n8
*1295 mult_76/n9
*1296 mult_76/n10
*1297 mult_76/n11
*1298 mult_76/n12
*1299 mult_76/n13
*1300 mult_76/n14
*1301 mult_76/n15
*1302 mult_76/n16
*1303 mult_76/n17
*1304 mult_76/n18
*1305 mult_76/n81
*1306 mult_76/n82
*1307 mult_76/n83
*1308 mult_76/n84
*1309 mult_76/n85
*1310 mult_76/n86
*1311 mult_76/n87
*1312 mult_76/n88
*1313 mult_76/n89
*1314 mult_76/n90
*1315 mult_76/n91
*1316 mult_76/n92
*1317 mult_76/n93
*1318 mult_76/n94
*1319 mult_76/n95
*1320 mult_76/n96
*1321 mult_76/n97
*1322 mult_76/n98
*1323 mult_76/n99
*1324 add_1_root_add_0_root_add_94/n1
*1325 add_1_root_add_0_root_add_94/n2
*1326 add_1_root_add_0_root_add_94/n7
*1327 add_1_root_add_0_root_add_94/n9
*1328 add_1_root_add_0_root_add_94/carry[21]
*1329 add_1_root_add_0_root_add_94/carry[20]
*1330 add_1_root_add_0_root_add_94/carry[19]
*1331 add_1_root_add_0_root_add_94/carry[18]
*1332 add_1_root_add_0_root_add_94/carry[17]
*1333 add_1_root_add_0_root_add_94/carry[16]
*1334 add_1_root_add_0_root_add_94/carry[15]
*1335 add_1_root_add_0_root_add_94/carry[14]
*1336 add_1_root_add_0_root_add_94/carry[13]
*1337 add_1_root_add_0_root_add_94/carry[12]
*1338 add_1_root_add_0_root_add_94/carry[11]
*1339 add_1_root_add_0_root_add_94/carry[10]
*1340 add_1_root_add_0_root_add_94/carry[9]
*1341 add_1_root_add_0_root_add_94/carry[8]
*1342 add_1_root_add_0_root_add_94/carry[7]
*1343 add_1_root_add_0_root_add_94/carry[6]
*1344 add_1_root_add_0_root_add_94/carry[5]
*1345 add_1_root_add_0_root_add_94/carry[4]
*1346 add_1_root_add_0_root_add_94/carry[3]
*1347 add_1_root_add_0_root_add_94/carry[2]
*1348 add_0_root_add_0_root_add_94/n1
*1349 add_0_root_add_0_root_add_94/n2
*1350 add_0_root_add_0_root_add_94/n3
*1351 add_0_root_add_0_root_add_94/n9
*1352 add_0_root_add_0_root_add_94/n11
*1353 add_0_root_add_0_root_add_94/n12
*1354 add_0_root_add_0_root_add_94/n15
*1355 add_0_root_add_0_root_add_94/n16
*1356 add_0_root_add_0_root_add_94/n19
*1357 add_0_root_add_0_root_add_94/n21
*1358 add_0_root_add_0_root_add_94/carry[16]
*1359 add_0_root_add_0_root_add_94/carry[15]
*1360 add_0_root_add_0_root_add_94/carry[14]
*1361 add_0_root_add_0_root_add_94/carry[13]
*1362 add_0_root_add_0_root_add_94/carry[12]
*1363 add_0_root_add_0_root_add_94/carry[11]
*1364 add_0_root_add_0_root_add_94/carry[10]
*1365 add_0_root_add_0_root_add_94/carry[9]
*1366 add_0_root_add_0_root_add_94/carry[8]
*1367 add_0_root_add_0_root_add_94/carry[7]
*1368 add_0_root_add_0_root_add_94/carry[6]
*1369 add_0_root_add_0_root_add_94/carry[5]
*1370 add_0_root_add_0_root_add_94/carry[4]
*1371 add_0_root_add_0_root_add_94/carry[3]
*1372 add_0_root_add_0_root_add_94/carry[2]
*1373 y[31]
*1374 y[30]
*1375 y[29]
*1376 y[28]
*1377 y[27]
*1378 clk__L3_I25
*1379 clk__L3_I24
*1380 clk__L3_I23
*1381 clk__L3_I22
*1382 clk__L3_I21
*1383 clk__L3_I20
*1384 clk__L3_I19
*1385 clk__L3_I18
*1386 clk__L3_I17
*1387 clk__L3_I16
*1388 clk__L3_I15
*1389 clk__L3_I14
*1390 clk__L3_I13
*1391 clk__L3_I12
*1392 clk__L3_I11
*1393 clk__L3_I10
*1394 clk__L3_I9
*1395 clk__L3_I8
*1396 clk__L3_I7
*1397 clk__L3_I6
*1398 clk__L3_I5
*1399 clk__L3_I4
*1400 clk__L3_I3
*1401 clk__L3_I2
*1402 clk__L3_I1
*1403 clk__L3_I0
*1404 clk__L2_I3
*1405 clk__L2_I2
*1406 clk__L2_I1
*1407 clk__L2_I0
*1408 clk__L1_I0
*1409 q1/q_reg_15_
*1410 q1/q_reg_14_
*1411 q1/q_reg_13_
*1412 q1/q_reg_12_
*1413 q1/q_reg_11_
*1414 q1/q_reg_10_
*1415 q1/q_reg_9_
*1416 q1/q_reg_8_
*1417 q1/q_reg_7_
*1418 q1/q_reg_6_
*1419 q1/q_reg_5_
*1420 q1/q_reg_4_
*1421 q1/q_reg_3_
*1422 q1/q_reg_2_
*1423 q1/q_reg_1_
*1424 q1/q_reg_0_
*1425 q2/q_reg_15_
*1426 q2/q_reg_14_
*1427 q2/q_reg_13_
*1428 q2/q_reg_12_
*1429 q2/q_reg_11_
*1430 q2/q_reg_10_
*1431 q2/q_reg_9_
*1432 q2/q_reg_8_
*1433 q2/q_reg_7_
*1434 q2/q_reg_6_
*1435 q2/q_reg_5_
*1436 q2/q_reg_4_
*1437 q2/q_reg_3_
*1438 q2/q_reg_2_
*1439 q2/q_reg_1_
*1440 q2/q_reg_0_
*1441 q3/q_reg_15_
*1442 q3/q_reg_14_
*1443 q3/q_reg_13_
*1444 q3/q_reg_12_
*1445 q3/q_reg_11_
*1446 q3/q_reg_10_
*1447 q3/q_reg_9_
*1448 q3/q_reg_8_
*1449 q3/q_reg_7_
*1450 q3/q_reg_6_
*1451 q3/q_reg_5_
*1452 q3/q_reg_4_
*1453 q3/q_reg_3_
*1454 q3/q_reg_2_
*1455 q3/q_reg_1_
*1456 q3/q_reg_0_
*1457 q4/q_reg_15_
*1458 q4/q_reg_14_
*1459 q4/q_reg_13_
*1460 q4/q_reg_12_
*1461 q4/q_reg_11_
*1462 q4/q_reg_10_
*1463 q4/q_reg_9_
*1464 q4/q_reg_8_
*1465 q4/q_reg_7_
*1466 q4/q_reg_6_
*1467 q4/q_reg_5_
*1468 q4/q_reg_4_
*1469 q4/q_reg_3_
*1470 q4/q_reg_2_
*1471 q4/q_reg_1_
*1472 q4/q_reg_0_
*1473 q5/q_reg_15_
*1474 q5/q_reg_14_
*1475 q5/q_reg_13_
*1476 q5/q_reg_12_
*1477 q5/q_reg_11_
*1478 q5/q_reg_10_
*1479 q5/q_reg_9_
*1480 q5/q_reg_8_
*1481 q5/q_reg_7_
*1482 q5/q_reg_6_
*1483 q5/q_reg_5_
*1484 q5/q_reg_4_
*1485 q5/q_reg_3_
*1486 q5/q_reg_2_
*1487 q5/q_reg_1_